# Packages
 &PACKAGES
 useEXF    = .TRUE.,
 useSEAICE = .TRUE.,
 useThSIce = .TRUE.,
 useGGL90  = .TRUE.,
#useGMRedi = .TRUE.,
 useRBCS   = .TRUE.,
 useLayers = .TRUE.,
 useDiagnostics=.TRUE.,
 useCAL    = .TRUE.,
 &
  
